lig_ejm_31
                    3D
 Schrodinger Suite 2022-2.
 32 33  0  0  1  0            999 V2000
   -9.1626   -4.4727  -15.1861 Cl  0  0  0  0  0  0
   -7.4808   -4.7297  -15.5231 C   0  0  0  0  0  0
   -6.7278   -3.6230  -15.9090 C   0  0  0  0  0  0
   -5.3807   -3.7516  -16.2257 C   0  0  0  0  0  0
   -4.7816   -5.0054  -16.1835 C   0  0  0  0  0  0
   -5.5165   -6.1276  -15.8052 C   0  0  0  0  0  0
   -4.7003   -7.6517  -15.8427 Cl  0  0  0  0  0  0
   -6.8772   -5.9999  -15.4463 C   0  0  0  0  0  0
   -7.6867   -7.1934  -15.0153 C   0  0  0  0  0  0
   -8.0468   -7.3121  -13.8433 O   0  0  0  0  0  0
   -7.9308   -8.0637  -16.0129 N   0  0  0  0  0  0
   -8.7336   -9.2139  -16.0241 C   0  0  0  0  0  0
   -9.5921   -9.6144  -14.9872 C   0  0  0  0  0  0
  -10.3765  -10.7506  -15.1786 C   0  0  0  0  0  0
  -10.3313  -11.5001  -16.3083 N   0  0  0  0  0  0
   -9.4890  -11.1213  -17.3037 C   0  0  0  0  0  0
   -8.6866   -9.9745  -17.1940 C   0  0  0  0  0  0
   -9.5125  -11.9581  -18.4306 N   0  0  0  0  0  0
   -8.6350  -12.0397  -19.4533 C   0  0  0  0  0  0
   -7.5857  -11.3972  -19.5347 O   0  0  0  0  0  0
   -8.9830  -13.0386  -20.5530 C   0  0  0  0  0  0
   -7.1940   -2.6501  -15.9644 H   0  0  0  0  0  0
   -4.8075   -2.8856  -16.5221 H   0  0  0  0  0  0
   -3.7407   -5.1076  -16.4537 H   0  0  0  0  0  0
   -7.4960   -7.8415  -16.8967 H   0  0  0  0  0  0
   -9.6913   -9.0645  -14.0652 H   0  0  0  0  0  0
  -11.0595  -11.0806  -14.4100 H   0  0  0  0  0  0
   -8.0444   -9.6461  -17.9957 H   0  0  0  0  0  0
  -10.2855  -12.6066  -18.4631 H   0  0  0  0  0  0
   -9.9350  -13.5354  -20.3604 H   0  0  0  0  0  0
   -8.2083  -13.8025  -20.6249 H   0  0  0  0  0  0
   -9.0530  -12.5291  -21.5143 H   0  0  0  0  0  0
  1  2  1  0  0  0
  2  8  1  0  0  0
  2  3  2  0  0  0
  3  4  1  0  0  0
  3 22  1  0  0  0
  4  5  2  0  0  0
  4 23  1  0  0  0
  5  6  1  0  0  0
  5 24  1  0  0  0
  6  7  1  0  0  0
  6  8  2  0  0  0
  8  9  1  0  0  0
  9 10  2  0  0  0
  9 11  1  0  0  0
 11 12  1  0  0  0
 11 25  1  0  0  0
 12 17  1  0  0  0
 12 13  2  0  0  0
 13 14  1  0  0  0
 13 26  1  0  0  0
 14 15  2  0  0  0
 14 27  1  0  0  0
 15 16  1  0  0  0
 16 17  2  0  0  0
 16 18  1  0  0  0
 17 28  1  0  0  0
 18 19  1  0  0  0
 18 29  1  0  0  0
 19 20  2  0  0  0
 19 21  1  0  0  0
 21 30  1  0  0  0
 21 31  1  0  0  0
 21 32  1  0  0  0
M  END
> <s_m_subgroup_title>
align_ligands_1

> <s_m_subgroupid>
align_ligands_1

> <b_m_subgroup_collapsed>
0

$$$$
