lig_20
                    3D
 Schrodinger Suite 2022-2.
 49 52  0  0  1  0            999 V2000
    4.4609   40.9750   49.7332 C   0  0  0  0  0  0
    3.9224   40.5509   48.5218 C   0  0  0  0  0  0
    4.5732   40.8123   47.3102 C   0  0  0  0  0  0
    5.7687   41.5392   47.3303 C   0  0  0  0  0  0
    6.2992   41.9938   48.5388 C   0  0  0  0  0  0
    5.6546   41.6852   49.7414 C   0  0  0  0  0  0
    7.4831   42.7508   48.5212 N   0  0  0  0  0  0
    7.8728   43.7762   49.3856 C   0  0  0  0  0  0
    9.2095   44.0030   49.5109 N   0  0  0  0  0  0
    9.4889   44.9392   50.4270 C   0  0  0  0  0  0
    8.5494   45.6604   51.2068 C   0  0  0  0  0  0
   10.7034   45.4180   50.8420 N   0  0  0  0  0  0
   10.4351   46.3841   51.7822 C   0  0  0  0  0  0
    9.1655   46.5501   52.0454 N   0  0  0  0  0  0
    6.8785   44.4134   50.0485 N   0  0  0  0  0  0
    7.2074   45.3340   50.9896 C   0  0  0  0  0  0
    6.2191   45.9170   51.7634 O   0  0  0  0  0  0
    4.8555   45.6288   51.4259 C   0  0  0  0  0  0
    3.8816   45.8522   52.5899 C   0  0  0  0  0  0
    2.4317   45.7210   52.0679 C   0  0  0  0  0  0
    1.4093   45.9520   53.1893 C   0  0  0  0  0  0
    1.6357   44.9897   54.3715 C   0  0  0  0  0  0
    3.0901   45.0510   54.8845 C   0  0  0  0  0  0
    4.1036   44.8382   53.7408 C   0  0  0  0  0  0
    2.9924   40.0015   48.5070 H   0  0  0  0  0  0
    6.2675   41.7597   46.3976 H   0  0  0  0  0  0
    6.0678   42.0049   50.6866 H   0  0  0  0  0  0
    8.1817   42.4629   47.8515 H   0  0  0  0  0  0
   11.6235   45.1512   50.5231 H   0  0  0  0  0  0
   11.2114   46.9461   52.2807 H   0  0  0  0  0  0
    4.5832   46.2626   50.5807 H   0  0  0  0  0  0
    4.7069   44.5962   51.1063 H   0  0  0  0  0  0
    4.0265   46.8638   52.9720 H   0  0  0  0  0  0
    2.2549   46.4398   51.2670 H   0  0  0  0  0  0
    2.2779   44.7319   51.6339 H   0  0  0  0  0  0
    1.4827   46.9819   53.5406 H   0  0  0  0  0  0
    0.3978   45.8302   52.8010 H   0  0  0  0  0  0
    0.9432   45.2212   55.1810 H   0  0  0  0  0  0
    1.4098   43.9711   54.0537 H   0  0  0  0  0  0
    3.2693   46.0208   55.3502 H   0  0  0  0  0  0
    3.2425   44.3022   55.6621 H   0  0  0  0  0  0
    4.0148   43.8195   53.3618 H   0  0  0  0  0  0
    5.1177   44.9335   54.1301 H   0  0  0  0  0  0
    4.0046   40.2711   46.0140 C   0  0  0  0  0  0
    4.7449   40.3251   45.2126 H   0  0  0  0  0  0
    3.1585   40.8839   45.7015 H   0  0  0  0  0  0
    3.5941   38.9281   46.1771 O   0  0  0  0  0  0
    4.4046   38.4174   46.1631 H   0  0  0  0  0  0
    3.9568   40.7553   50.6627 H   0  0  0  0  0  0
  1  6  1  0  0  0
  1  2  2  0  0  0
  1 49  1  0  0  0
  2  3  1  0  0  0
  2 25  1  0  0  0
  3  4  2  0  0  0
  3 44  1  0  0  0
  4  5  1  0  0  0
  4 26  1  0  0  0
  5  6  2  0  0  0
  5  7  1  0  0  0
  6 27  1  0  0  0
  7  8  1  0  0  0
  7 28  1  0  0  0
  8  9  1  0  0  0
  8 15  2  0  0  0
  9 10  2  0  0  0
 10 11  1  0  0  0
 10 12  1  0  0  0
 11 16  2  0  0  0
 11 14  1  0  0  0
 12 13  1  0  0  0
 12 29  1  0  0  0
 13 14  2  0  0  0
 13 30  1  0  0  0
 15 16  1  0  0  0
 16 17  1  0  0  0
 17 18  1  0  0  0
 18 19  1  0  0  0
 18 31  1  0  0  0
 18 32  1  0  0  0
 19 24  1  0  0  0
 19 20  1  0  0  0
 19 33  1  0  0  0
 20 21  1  0  0  0
 20 34  1  0  0  0
 20 35  1  0  0  0
 21 22  1  0  0  0
 21 36  1  0  0  0
 21 37  1  0  0  0
 22 23  1  0  0  0
 22 38  1  0  0  0
 22 39  1  0  0  0
 23 24  1  0  0  0
 23 40  1  0  0  0
 23 41  1  0  0  0
 24 42  1  0  0  0
 24 43  1  0  0  0
 44 45  1  0  0  0
 44 46  1  0  0  0
 44 47  1  0  0  0
 47 48  1  0  0  0
M  END
> <s_m_subgroup_title>
align_ligands_1_copy1

> <s_m_subgroupid>
align_ligands_1_copy1

> <b_m_subgroup_collapsed>
0

$$$$
